*The following example is a model for a
* 1mH inductor (14 105 40) where Lo=33uH,
* Rdc=0.1885, Idc=4.0A, Q=49 and fo=800kHz.
.SUBCKT LNR6045T330M 1 2
LO 1 4 33E-6
V1 4 3 DC 0
B1 4 1 I=I(V1)^3*-2.08E-3
RDC 3 2 0.1885
CP 1 2 39.6E-12
RP 1 2 250K
.ENDS LNR6045T330M

.SUBCKT LSRR1260-680M 1 2
LO 1 4 68E-6
V1 4 3 DC 0
B1 4 1 I=I(V1)^3*-2.08E-3
RDC 3 2 0.110
CP 1 2 39.6E-12
RP 1 2 250K
.ENDS LSRR1260-680M
