*
*DIODES_INC_SPICE_MODEL
*ORIGIN=DZSL_DPG_SU
*SIMULATOR=PSPICE
*DATE=30/01/2015
*VERSION=1

.model SMCJ33A D(IS=.1u RS=0.2 CJO=80000p M=1.3 VJ=0.4 ISR=.008u N=1.05 IKF=1m BV=34.3 NBV=20 IBV=10u TT=4n EG=.84 TRS1=.1m) 



*         (c)  2015 Diodes Inc
*   The copyright in these models  and  the designs embodied belong
*   to Diodes Incorporated (" Zetex ").  They  are  supplied
*   free of charge by Zetex for the purpose of research and design
*   and may be used or copied intact  (including this notice)  for
*   that purpose only.  All other rights are reserved.  The models
*   are believed accurate but no condition  or warranty  as to their
*   merchantability or fitness for purpose is given and no liability
*   in respect of any use is accepted by Diodes Incorporated, its distributors
*   or agents.
*
*   Diodes Zetex Semiconductors Ltd, Zetex Technology Park, Chadderton,
*   Oldham, United Kingdom, OL9 9LL
*

.SIMULATOR DEFAULT